*Heading
** Job name: Job-1 Model name: Model-1
** Generated by: Abaqus/CAE 6.14-1
*Preprint, echo=NO, model=NO, history=NO, contact=NO
**
** PARTS
**
*Part, name=rail
*Node
1, 0.150000006, 0.150000006, 5.
2, 0.150000006, 0., 5.
3, 0.150000006, 0.150000006, 4.75
4, 0.150000006, 0., 4.75
5, 0.150000006, 0.150000006, 4.5
6, 0.150000006, 0., 4.5
7, 0.150000006, 0.150000006, 4.25
8, 0.150000006, 0., 4.25
9, 0.150000006, 0.150000006, 4.
10, 0.150000006, 0., 4.
11, 0.150000006, 0.150000006, 3.75
12, 0.150000006, 0., 3.75
13, 0.150000006, 0.150000006, 3.5
14, 0.150000006, 0., 3.5
15, 0.150000006, 0.150000006, 3.25
16, 0.150000006, 0., 3.25
17, 0.150000006, 0.150000006, 3.
18, 0.150000006, 0., 3.
19, 0.150000006, 0.150000006, 2.75
20, 0.150000006, 0., 2.75
** ... 64 like lines cut
*Element, type=C3D8R
1, 43, 44, 46, 45, 1, 2, 4, 3
2, 45, 46, 48, 47, 3, 4, 6, 5
3, 47, 48, 50, 49, 5, 6, 8, 7
4, 49, 50, 52, 51, 7, 8, 10, 9
5, 51, 52, 54, 53, 9, 10, 12, 11
6, 53, 54, 56, 55, 11, 12, 14, 13
7, 55, 56, 58, 57, 13, 14, 16, 15
8, 57, 58, 60, 59, 15, 16, 18, 17
9, 59, 60, 62, 61, 17, 18, 20, 19
10, 61, 62, 64, 63, 19, 20, 22, 21
11, 63, 64, 66, 65, 21, 22, 24, 23
12, 65, 66, 68, 67, 23, 24, 26, 25
13, 67, 68, 70, 69, 25, 26, 28, 27
14, 69, 70, 72, 71, 27, 28, 30, 29
15, 71, 72, 74, 73, 29, 30, 32, 31
16, 73, 74, 76, 75, 31, 32, 34, 33
17, 75, 76, 78, 77, 33, 34, 36, 35
18, 77, 78, 80, 79, 35, 36, 38, 37
19, 79, 80, 82, 81, 37, 38, 40, 39
20, 81, 82, 84, 83, 39, 40, 42, 41
*Nset, nset=rail, generate
1, 84, 1
*Elset, elset=rail, generate
1, 20, 1
** Section: rail_section
*Solid Section, elset=rail, material=steel
,
*End Part
**
*Part, name=solid_wheel
*Node
1, 0.959492981, 0.281732559, 0.
2, 0.841253519, 0.540640831, 0.
3, 0.654860735, 0.755749583, 0.
4, 0.415415019, 0.909631968, 0.
5, 0.142314836, 0.989821434, 0.
6, -0.142314836, 0.989821434, 0.
7, -0.415415019, 0.909631968, 0.
8, -0.654860735, 0.755749583, 0.
9, -0.841253519, 0.540640831, 0.
10, -0.959492981, 0.281732559, 0.
11, -1., 0., 0.
12, -0.959492981, -0.281732559, 0.
13, -0.841253519, -0.540640831, 0.
14, -0.654860735, -0.755749583, 0.
15, -0.415415019, -0.909631968, 0.
16, -0.142314836, -0.989821434, 0.
17, 0.142314836, -0.989821434, 0.
18, 0.415415019, -0.909631968, 0.
19, 0.654860735, -0.755749583, 0.
20, 0.841253519, -0.540640831, 0.
** ... 106 like lines cut
*Element, type=C3D8R
1, 80, 79, 120, 87, 17, 16, 57, 24
2, 120, 79, 78, 121, 57, 16, 15, 58
3, 77, 88, 121, 78, 14, 25, 58, 15
4, 72, 71, 94, 93, 9, 8, 31, 30
5, 99, 118, 100, 107, 36, 55, 37, 44
6, 99, 107, 111, 98, 36, 44, 48, 35
7, 98, 108, 95, 122, 35, 45, 32, 59
8, 126, 91, 92, 93, 63, 28, 29, 30
9, 89, 125, 105, 88, 26, 62, 42, 25
10, 105, 116, 87, 120, 42, 53, 24, 57
11, 96, 83, 82, 97, 33, 20, 19, 34
12, 114, 116, 106, 126, 51, 53, 43, 63
13, 125, 106, 116, 105, 62, 43, 53, 42
14, 117, 109, 116, 114, 54, 46, 53, 51
15, 102, 101, 64, 85, 39, 38, 1, 22
16, 103, 96, 124, 110, 40, 33, 61, 47
17, 97, 82, 81, 86, 34, 19, 18, 23
18, 87, 86, 81, 80, 24, 23, 18, 17
19, 88, 77, 76, 89, 25, 14, 13, 26
20, 89, 76, 75, 90, 26, 13, 12, 27
** ... 31 like lines cut
*Nset, nset=wheel_section, generate
1, 126, 1
*Elset, elset=wheel_section, generate
1, 51, 1
** Section: wheel
*Solid Section, elset=wheel_section, material=steel
,
*End Part
**
**
** ASSEMBLY
**
*Assembly, name=Assembly
**
*Instance, name=rail-1, part=rail
*End Instance
**
*Instance, name=solid_wheel-1, part=solid_wheel
5.9604599034202e-09, 1.15, 9.18485099360514e-18
5.9604599034202e-09, 1.15, 9.18485099360514e-18, -0.577350273591582, 1.72735027955204, -0.577350279552042, 119.999999109416
*End Instance
**
*Node
1, 5.96045968e-09, 1.14999998, -5.20474879e-17
*Nset, nset=Set-8, instance=rail-1, generate
1, 83, 2
*Elset, elset=Set-8, instance=rail-1, generate
1, 20, 1
*Nset, nset=Set-9, instance=rail-1, generate
2, 84, 2
*Elset, elset=Set-9, instance=rail-1, generate
1, 20, 1
*Nset, nset=Set-10, instance=rail-1, generate
2, 84, 2
*Elset, elset=Set-10, instance=rail-1, generate
1, 20, 1
*Nset, nset=side1_rail, instance=rail-1
1, 2, 43, 44
*Elset, elset=side1_rail, instance=rail-1
1,
*Nset, nset=side2_fixed, instance=rail-1
41, 42, 83, 84
*Elset, elset=side2_fixed, instance=rail-1
20,
*Nset, nset=_PickedSet26, internal, instance=solid_wheel-1, generate
1, 126, 1
*Elset, elset=_PickedSet26, internal, instance=solid_wheel-1, generate
1, 51, 1
*Nset, nset=_PickedSet28, internal
1,
*Nset, nset=_PickedSet32, internal
1,
*Nset, nset=_PickedSet33, internal
1,
*Nset, nset=_PickedSet34, internal
1,
*Elset, elset=_Surf-4_S6, internal, instance=rail-1, generate
1, 20, 1
*Surface, type=ELEMENT, name=Surf-4
_Surf-4_S6, S6
*Elset, elset=_rail_top_S6, internal, instance=rail-1, generate
1, 20, 1
*Surface, type=ELEMENT, name=rail_top
_rail_top_S6, S6
*Elset, elset=_s_Surf-3_S1, internal, instance=rail-1, generate
1, 20, 1
*Surface, type=ELEMENT, name=s_Surf-3
_s_Surf-3_S1, S1
*Elset, elset=_wheel_rim_S3, internal, instance=solid_wheel-1
1, 4, 32, 34
*Elset, elset=_wheel_rim_S4, internal, instance=solid_wheel-1
2, 11, 17, 19, 20, 22, 23, 24, 26, 27, 30
*Elset, elset=_wheel_rim_S6, internal, instance=solid_wheel-1
3, 28, 29
*Elset, elset=_wheel_rim_S5, internal, instance=solid_wheel-1
15, 18, 25, 38
*Surface, type=ELEMENT, name=wheel_rim
_wheel_rim_S3, S3
_wheel_rim_S4, S4
_wheel_rim_S6, S6
_wheel_rim_S5, S5
** Constraint: Constraint-2
*Rigid Body, ref node=_PickedSet28, elset=_PickedSet26
** Constraint: Constraint-3
*Coupling, constraint name=Constraint-3, ref node=_PickedSet33, surface=wheel_rim
*Kinematic
*Elset, elset=__Int-2_gcs0_7_S3, internal, instance=solid_wheel-1
1, 4, 32, 34
*Elset, elset=__Int-2_gcs0_7_S4, internal, instance=solid_wheel-1
2, 11, 17, 19, 20, 22, 23, 24, 26, 27, 30
*Elset, elset=__Int-2_gcs0_7_S6, internal, instance=solid_wheel-1
3, 28, 29
*Elset, elset=__Int-2_gcs0_7_S5, internal, instance=solid_wheel-1
15, 18, 25, 38
*Surface, type=ELEMENT, name=_Int-2_gcs0_7, internal
__Int-2_gcs0_7_S3, S3
__Int-2_gcs0_7_S4, S4
__Int-2_gcs0_7_S6, S6
__Int-2_gcs0_7_S5, S5
*End Assembly
*Amplitude, name=Amp-1
0., 0., 0.1, 0.01, 0.2, 0.02, 0.3, 0.03
0.4, 0.04, 0.5, 0.05, 0.6, 0.06, 0.7, 0.07
0.8, 0.08, 0.9, 0.09, 1., 0.1, 1.1, 0.11
1.2, 0.12, 1.3, 0.13, 1.4, 0.14, 1.5, 0.15
1.6, 0.16, 1.7, 0.17, 1.8, 0.18, 1.9, 0.19
2., 0.2, 2.1, 0.21, 2.2, 0.22, 2.3, 0.23
2.4, 0.24, 2.5, 0.25, 2.6, 0.26, 2.7, 0.27
2.8, 0.28, 2.9, 0.29, 3., 0.3, 3.1, 0.31
3.2, 0.32, 3.3, 0.33, 3.4, 0.34, 3.5, 0.35
3.6, 0.36, 3.7, 0.37, 3.8, 0.38, 3.9, 0.39
4., 0.4, 4.1, 0.41, 4.2, 0.42, 4.3, 0.43
4.4, 0.44, 4.5, 0.45, 4.6, 0.46, 4.7, 0.47
4.8, 0.48, 4.9, 0.49, 5., 0.5, 5.1, 0.51
5.2, 0.52, 5.3, 0.53, 5.4, 0.54, 5.5, 0.55
5.6, 0.56, 5.7, 0.57, 5.8, 0.58, 5.9, 0.59
6., 0.6, 6.1, 0.61, 6.2, 0.62, 6.3, 0.63
6.4, 0.64, 6.5, 0.65, 6.6, 0.66, 6.7, 0.67
6.8, 0.68, 6.9, 0.69, 7., 0.7, 7.1, 0.71
7.2, 0.72, 7.3, 0.73, 7.4, 0.74, 7.5, 0.75
7.6, 0.76, 7.7, 0.77, 7.8, 0.78, 7.9, 0.79
** ... 6 like lines cut
**
** MATERIALS
**
*Material, name=steel
*Density
7850.,
*Elastic
2.07e+11, 0.28
**
** INTERACTION PROPERTIES
**
*Surface Interaction, name=friction
1.,
*Friction, slip tolerance=0.005
0.3,
*Surface Behavior, pressure-overclosure=HARD
*Surface Interaction, name=rough
1.,
*Friction, slip tolerance=0.005
0.3,
*Surface Behavior, pressure-overclosure=HARD
**
** BOUNDARY CONDITIONS
**
** Name: BC-1 Type: Symmetry/Antisymmetry/Encastre
*Boundary
side1_rail, ENCASTRE
** Name: BC-2 Type: Symmetry/Antisymmetry/Encastre
*Boundary
side2_fixed, ENCASTRE
** Name: BC-4 Type: Symmetry/Antisymmetry/Encastre
*Boundary
Set-10, PINNED
** Name: wheel Type: Displacement/Rotation
*Boundary
_PickedSet34, 1, 1
_PickedSet34, 3, 3
_PickedSet34, 4, 4
_PickedSet34, 5, 5
_PickedSet34, 6, 6
**
** INTERACTIONS
**
** Interaction: Int-2
*Contact
*Contact Inclusions
Surf-4 , wheel_rim
*Contact Property Assignment
, , friction
*Surface Property Assignment, property=GEOMETRIC CORRECTION
_Int-2_gcs0_7, Circumferential, 5.96046e-09, 1.15, 9.18485e-18, 1., 1.15, 9.18485e-18
** —————————————————————-
**
** STEP: Step-1
**
*Step, name=Step-1, nlgeom=YES, inc=100000
*Static
0.001, 1., 1e-05, 0.01
**
** LOADS
**
** Name: Load-1 Type: Concentrated force
*Cload, follower, amplitude=Amp-1
_PickedSet32, 2, -100000.
** Name: gravity Type: Gravity
*Dload
, GRAV, 9.81, 0., -1., 0.
**
** OUTPUT REQUESTS
**
*Restart, write, frequency=0
**
** FIELD OUTPUT: F-Output-1
**
*Output, field, variable=PRESELECT
**
** HISTORY OUTPUT: H-Output-2
**
*Output, history
*Node Output, nset=side1_rail
RF2,
**
** HISTORY OUTPUT: H-Output-3
**
*Node Output, nset=side2_fixed
RF2,
**
** HISTORY OUTPUT: H-Output-4
**
*Node Output, nset=solid_wheel-1.wheel_section
U3,
**
** HISTORY OUTPUT: H-Output-1
**
*Output, history, variable=PRESELECT
*End Step
** —————————————————————-
**
** STEP: Step-3
**
*Step, name=Step-3, nlgeom=YES, inc=10000
*Dynamic
0.001,10.,0.0001
**
** BOUNDARY CONDITIONS
**
** Name: BC-1 Type: Symmetry/Antisymmetry/Encastre
*Boundary, op=NEW
side1_rail, ENCASTRE
** Name: BC-2 Type: Symmetry/Antisymmetry/Encastre
*Boundary, op=NEW
side2_fixed, ENCASTRE
** Name: BC-4 Type: Symmetry/Antisymmetry/Encastre
*Boundary, op=NEW
Set-10, PINNED
** Name: wheel Type: Displacement/Rotation
*Boundary, op=NEW, amplitude=Amp-1
_PickedSet34, 1, 1
_PickedSet34, 4, 4, 3.14
_PickedSet34, 5, 5
_PickedSet34, 6, 6
**
** OUTPUT REQUESTS
**
*Restart, write, frequency=0
**
** FIELD OUTPUT: F-Output-1
**
*Output, field, variable=PRESELECT, frequency=1
**
** HISTORY OUTPUT: H-Output-2
**
*Output, history, frequency=1
*Node Output, nset=side1_rail
RF2,
**
** HISTORY OUTPUT: H-Output-3
**
*Node Output, nset=side2_fixed
RF2,
**
** HISTORY OUTPUT: H-Output-4
**
*Node Output, nset=solid_wheel-1.wheel_section
U3,
**
** HISTORY OUTPUT: H-Output-1
**
*Output, history, variable=PRESELECT, frequency=1
*End Step